# generated using pymatgen
data_Sr16Zr16S47
_symmetry_space_group_name_H-M   'P 1'
_cell_length_a   13.53835200
_cell_length_b   13.89716484
_cell_length_c   13.89716484
_cell_angle_alpha   61.96470840
_cell_angle_beta   60.85047728
_cell_angle_gamma   60.85047728
_symmetry_Int_Tables_number   1
_chemical_formula_structural   Sr16Zr16S47
_chemical_formula_sum   'Sr16 Zr16 S47'
_cell_volume   1899.20024466
_cell_formula_units_Z   1
loop_
 _symmetry_equiv_pos_site_id
 _symmetry_equiv_pos_as_xyz
  1  'x, y, z'
loop_
 _atom_site_type_symbol
 _atom_site_label
 _atom_site_symmetry_multiplicity
 _atom_site_fract_x
 _atom_site_fract_y
 _atom_site_fract_z
 _atom_site_occupancy
  Sr  Sr0  1  0.11126565  0.41457815  0.33562827  1
  Sr  Sr1  1  0.61728585  0.41236646  0.33754374  1
  Sr  Sr2  1  0.11789761  0.90962906  0.83418301  1
  Sr  Sr3  1  0.61342776  0.91506477  0.83463539  1
  Sr  Sr4  1  0.11044732  0.33686484  0.92556779  1
  Sr  Sr5  1  0.61334204  0.33755216  0.91344839  1
  Sr  Sr6  1  0.11034475  0.83782278  0.41681035  1
  Sr  Sr7  1  0.61263474  0.83550853  0.41916261  1
  Sr  Sr8  1  0.89055611  0.66247090  0.08614856  1
  Sr  Sr9  1  0.38859643  0.66415533  0.07816779  1
  Sr  Sr10  1  0.88673012  0.16128708  0.57904149  1
  Sr  Sr11  1  0.40212495  0.15425588  0.58122074  1
  Sr  Sr12  1  0.86829823  0.60300636  0.66393908  1
  Sr  Sr13  1  0.38398354  0.58692084  0.66450269  1
  Sr  Sr14  1  0.88968687  0.08485708  0.16238390  1
  Sr  Sr15  1  0.38418001  0.08770752  0.16592919  1
  Zr  Zr16  1  0.74981107  0.50096248  0.00205469  1
  Zr  Zr17  1  0.25088351  0.49980627  0.00038093  1
  Zr  Zr18  1  0.75156406  0.00082318  0.49803066  1
  Zr  Zr19  1  0.24977245  0.00267847  0.50093081  1
  Zr  Zr20  1  0.25147541  0.99960423  0.00080746  1
  Zr  Zr21  1  0.74565609  0.99515388  0.00733883  1
  Zr  Zr22  1  0.26548156  0.51423279  0.47521297  1
  Zr  Zr23  1  0.75024788  0.49934123  0.50052101  1
  Zr  Zr24  1  0.00080210  0.24965231  0.25028610  1
  Zr  Zr25  1  0.49971977  0.25066883  0.24967462  1
  Zr  Zr26  1  0.00007544  0.74916951  0.75146136  1
  Zr  Zr27  1  0.49748414  0.75061456  0.75100186  1
  Zr  Zr28  1  0.98183152  0.23594256  0.75942678  1
  Zr  Zr29  1  0.49853107  0.24940579  0.75237158  1
  Zr  Zr30  1  0.00065186  0.74931077  0.25061950  1
  Zr  Zr31  1  0.50449286  0.75463060  0.24838595  1
  S  S32  1  0.62824982  0.37205237  0.67460997  1
  S  S33  1  0.13000742  0.87302054  0.17600042  1
  S  S34  1  0.62949060  0.87333239  0.18180884  1
  S  S35  1  0.82612648  0.86354290  0.88727069  1
  S  S36  1  0.32710385  0.86816204  0.88282244  1
  S  S37  1  0.82991543  0.36692752  0.38330626  1
  S  S38  1  0.32081969  0.36094698  0.39272297  1
  S  S39  1  0.86991105  0.32337147  0.12860983  1
  S  S40  1  0.37133621  0.32422169  0.12757768  1
  S  S41  1  0.87127233  0.82872432  0.62726893  1
  S  S42  1  0.36857004  0.82528821  0.62849059  1
  S  S43  1  0.07276453  0.42499331  0.12176188  1
  S  S44  1  0.57301795  0.42591726  0.12207358  1
  S  S45  1  0.07408292  0.92413163  0.62347845  1
  S  S46  1  0.57827000  0.91990183  0.62172341  1
  S  S47  1  0.87034811  0.62732604  0.32575587  1
  S  S48  1  0.37539979  0.63131763  0.31162029  1
  S  S49  1  0.86605280  0.12136537  0.81944595  1
  S  S50  1  0.36926540  0.12770324  0.82301898  1
  S  S51  1  0.92968704  0.87770419  0.07251587  1
  S  S52  1  0.42973108  0.87820144  0.07342302  1
  S  S53  1  0.93116197  0.37810477  0.57648364  1
  S  S54  1  0.41647854  0.37512533  0.57770746  1
  S  S55  1  0.92879068  0.57310631  0.87695093  1
  S  S56  1  0.42821963  0.57355185  0.87806879  1
  S  S57  1  0.92882662  0.07439433  0.37731899  1
  S  S58  1  0.42928775  0.07377269  0.37763203  1
  S  S59  1  0.07346004  0.13233796  0.91906116  1
  S  S60  1  0.57125994  0.12227114  0.92749012  1
  S  S61  1  0.07015069  0.61997215  0.43213040  1
  S  S62  1  0.57079887  0.62159166  0.42637580  1
  S  S63  1  0.32660022  0.38476041  0.86585017  1
  S  S64  1  0.83795109  0.38750711  0.85798905  1
  S  S65  1  0.32742587  0.88384736  0.36686715  1
  S  S66  1  0.82881847  0.88374721  0.36549397  1
  S  S67  1  0.17233656  0.13235283  0.11809844  1
  S  S68  1  0.67429011  0.13580294  0.11383603  1
  S  S69  1  0.16866096  0.62294538  0.61939040  1
  S  S70  1  0.66644562  0.63197937  0.61819120  1
  S  S71  1  0.13066251  0.67474601  0.87199924  1
  S  S72  1  0.62986200  0.67604977  0.87242235  1
  S  S73  1  0.12976239  0.17599624  0.37347175  1
  S  S74  1  0.63132047  0.17685777  0.37025964  1
  S  S75  1  0.67410941  0.61639146  0.13476825  1
  S  S76  1  0.17228721  0.61534489  0.13496962  1
  S  S77  1  0.66847459  0.11821498  0.63236374  1
  S  S78  1  0.17355501  0.12119551  0.63642065  1
