# generated using pymatgen
data_AlN
_symmetry_space_group_name_H-M   'P 1'
_cell_length_a   10.83774706
_cell_length_b   10.83774800
_cell_length_c   11.82504128
_cell_angle_alpha   90.00000000
_cell_angle_beta   62.72549735
_cell_angle_gamma   120.00000288
_symmetry_Int_Tables_number   1
_chemical_formula_structural   AlN
_chemical_formula_sum   'Al48 N48'
_cell_volume   1020.65479388
_cell_formula_units_Z   48
loop_
 _symmetry_equiv_pos_site_id
 _symmetry_equiv_pos_as_xyz
  1  'x, y, z'
loop_
 _atom_site_type_symbol
 _atom_site_label
 _atom_site_symmetry_multiplicity
 _atom_site_fract_x
 _atom_site_fract_y
 _atom_site_fract_z
 _atom_site_occupancy
  Al  Al0  1  0.00023767  0.41678533  0.24964350  1
  Al  Al1  1  0.16690433  0.75011867  0.24964350  1
  Al  Al2  1  0.00023767  0.91678533  0.24964350  1
  Al  Al3  1  0.16690433  0.25011867  0.24964350  1
  Al  Al4  1  0.33357100  0.58345200  0.24964350  1
  Al  Al5  1  0.00023767  0.41678533  0.74964350  1
  Al  Al6  1  0.16690433  0.75011867  0.74964350  1
  Al  Al7  1  0.33357100  0.08345200  0.24964350  1
  Al  Al8  1  0.00023767  0.91678533  0.74964350  1
  Al  Al9  1  0.50023767  0.41678533  0.24964350  1
  Al  Al10  1  0.16690433  0.25011867  0.74964350  1
  Al  Al11  1  0.66690433  0.75011867  0.24964350  1
  Al  Al12  1  0.33357100  0.58345200  0.74964350  1
  Al  Al13  1  0.50023767  0.91678533  0.24964350  1
  Al  Al14  1  0.66690433  0.25011867  0.24964350  1
  Al  Al15  1  0.33357100  0.08345200  0.74964350  1
  Al  Al16  1  0.83357100  0.58345200  0.24964350  1
  Al  Al17  1  0.50023767  0.41678533  0.74964350  1
  Al  Al18  1  0.66690433  0.75011867  0.74964350  1
  Al  Al19  1  0.83357100  0.08345200  0.24964350  1
  Al  Al20  1  0.50023767  0.91678533  0.74964350  1
  Al  Al21  1  0.66690433  0.25011867  0.74964350  1
  Al  Al22  1  0.83357100  0.58345200  0.74964350  1
  Al  Al23  1  0.83357100  0.08345200  0.74964350  1
  Al  Al24  1  0.83357100  0.50011900  0.49964350  1
  Al  Al25  1  0.00023767  0.83345233  0.49964350  1
  Al  Al26  1  0.83357100  0.00011900  0.49964350  1
  Al  Al27  1  0.00023767  0.33345233  0.49964350  1
  Al  Al28  1  0.16690433  0.66678567  0.49964350  1
  Al  Al29  1  0.83357100  0.50011900  0.99964350  1
  Al  Al30  1  0.00023767  0.83345233  0.99964350  1
  Al  Al31  1  0.16690433  0.16678567  0.49964350  1
  Al  Al32  1  0.83357100  0.00011900  0.99964350  1
  Al  Al33  1  0.33357100  0.50011900  0.49964350  1
  Al  Al34  1  0.00023767  0.33345233  0.99964350  1
  Al  Al35  1  0.50023767  0.83345233  0.49964350  1
  Al  Al36  1  0.16690433  0.66678567  0.99964350  1
  Al  Al37  1  0.33357100  0.00011900  0.49964350  1
  Al  Al38  1  0.50023767  0.33345233  0.49964350  1
  Al  Al39  1  0.16690433  0.16678567  0.99964350  1
  Al  Al40  1  0.66690433  0.66678567  0.49964350  1
  Al  Al41  1  0.33357100  0.50011900  0.99964350  1
  Al  Al42  1  0.50023767  0.83345233  0.99964350  1
  Al  Al43  1  0.66690433  0.16678567  0.49964350  1
  Al  Al44  1  0.33357100  0.00011900  0.99964350  1
  Al  Al45  1  0.50023767  0.33345233  0.99964350  1
  Al  Al46  1  0.66690433  0.66678567  0.99964350  1
  Al  Al47  1  0.66690433  0.16678567  0.99964350  1
  N  N48  1  0.87309567  0.35321433  0.44035650  1
  N  N49  1  0.03976233  0.68654767  0.44035650  1
  N  N50  1  0.87309567  0.85321433  0.44035650  1
  N  N51  1  0.03976233  0.18654767  0.44035650  1
  N  N52  1  0.20642900  0.51988100  0.44035650  1
  N  N53  1  0.87309567  0.35321433  0.94035650  1
  N  N54  1  0.03976233  0.68654767  0.94035650  1
  N  N55  1  0.20642900  0.01988100  0.44035650  1
  N  N56  1  0.87309567  0.85321433  0.94035650  1
  N  N57  1  0.37309567  0.35321433  0.44035650  1
  N  N58  1  0.03976233  0.18654767  0.94035650  1
  N  N59  1  0.53976233  0.68654767  0.44035650  1
  N  N60  1  0.20642900  0.51988100  0.94035650  1
  N  N61  1  0.37309567  0.85321433  0.44035650  1
  N  N62  1  0.53976233  0.18654767  0.44035650  1
  N  N63  1  0.20642900  0.01988100  0.94035650  1
  N  N64  1  0.70642900  0.51988100  0.44035650  1
  N  N65  1  0.37309567  0.35321433  0.94035650  1
  N  N66  1  0.53976233  0.68654767  0.94035650  1
  N  N67  1  0.70642900  0.01988100  0.44035650  1
  N  N68  1  0.37309567  0.85321433  0.94035650  1
  N  N69  1  0.53976233  0.18654767  0.94035650  1
  N  N70  1  0.70642900  0.51988100  0.94035650  1
  N  N71  1  0.70642900  0.01988100  0.94035650  1
  N  N72  1  0.03976233  0.60321467  0.19035650  1
  N  N73  1  0.20642900  0.93654800  0.19035650  1
  N  N74  1  0.03976233  0.10321467  0.19035650  1
  N  N75  1  0.20642900  0.43654800  0.19035650  1
  N  N76  1  0.37309567  0.76988133  0.19035650  1
  N  N77  1  0.03976233  0.60321467  0.69035650  1
  N  N78  1  0.20642900  0.93654800  0.69035650  1
  N  N79  1  0.37309567  0.26988133  0.19035650  1
  N  N80  1  0.03976233  0.10321467  0.69035650  1
  N  N81  1  0.53976233  0.60321467  0.19035650  1
  N  N82  1  0.20642900  0.43654800  0.69035650  1
  N  N83  1  0.70642900  0.93654800  0.19035650  1
  N  N84  1  0.37309567  0.76988133  0.69035650  1
  N  N85  1  0.53976233  0.10321467  0.19035650  1
  N  N86  1  0.70642900  0.43654800  0.19035650  1
  N  N87  1  0.37309567  0.26988133  0.69035650  1
  N  N88  1  0.87309567  0.76988133  0.19035650  1
  N  N89  1  0.53976233  0.60321467  0.69035650  1
  N  N90  1  0.70642900  0.93654800  0.69035650  1
  N  N91  1  0.87309567  0.26988133  0.19035650  1
  N  N92  1  0.53976233  0.10321467  0.69035650  1
  N  N93  1  0.70642900  0.43654800  0.69035650  1
  N  N94  1  0.87309567  0.76988133  0.69035650  1
  N  N95  1  0.87309567  0.26988133  0.69035650  1
