# generated using pymatgen
data_SrCoO3
_symmetry_space_group_name_H-M   'P 1'
_cell_length_a   7.77013866
_cell_length_b   7.77013866
_cell_length_c   15.54027732
_cell_angle_alpha   90.00000000
_cell_angle_beta   90.00000000
_cell_angle_gamma   90.00000000
_symmetry_Int_Tables_number   1
_chemical_formula_structural   SrCoO3
_chemical_formula_sum   'Sr16 Co16 O48'
_cell_volume   938.24509473
_cell_formula_units_Z   16
loop_
 _symmetry_equiv_pos_site_id
 _symmetry_equiv_pos_as_xyz
  1  'x, y, z'
loop_
 _atom_type_symbol
 _atom_type_oxidation_number
  Sr2+  2.0
  Co4+  4.0
  O2-  -2.0
loop_
 _atom_site_type_symbol
 _atom_site_label
 _atom_site_symmetry_multiplicity
 _atom_site_fract_x
 _atom_site_fract_y
 _atom_site_fract_z
 _atom_site_occupancy
  Sr2+  Sr0  1  0.25000000  0.25000000  0.12500000  1.0
  Sr2+  Sr0  1  0.25000000  0.25000000  0.37500000  1.0
  Sr2+  Sr0  1  0.25000000  0.25000000  0.62500000  1.0
  Sr2+  Sr0  1  0.25000000  0.25000000  0.87500000  1.0
  Sr2+  Sr0  1  0.25000000  0.75000000  0.12500000  1.0
  Sr2+  Sr0  1  0.25000000  0.75000000  0.37500000  1.0
  Sr2+  Sr0  1  0.25000000  0.75000000  0.62500000  1.0
  Sr2+  Sr0  1  0.25000000  0.75000000  0.87500000  1.0
  Sr2+  Sr0  1  0.75000000  0.25000000  0.12500000  1.0
  Sr2+  Sr0  1  0.75000000  0.25000000  0.37500000  1.0
  Sr2+  Sr0  1  0.75000000  0.25000000  0.62500000  1.0
  Sr2+  Sr0  1  0.75000000  0.25000000  0.87500000  1.0
  Sr2+  Sr0  1  0.75000000  0.75000000  0.12500000  1.0
  Sr2+  Sr0  1  0.75000000  0.75000000  0.37500000  1.0
  Sr2+  Sr0  1  0.75000000  0.75000000  0.62500000  1.0
  Sr2+  Sr0  1  0.75000000  0.75000000  0.87500000  1.0
  Co4+  Co1  1  0.00000000  0.00000000  0.00000000  1.0
  Co4+  Co1  1  0.00000000  0.00000000  0.25000000  1.0
  Co4+  Co1  1  0.00000000  0.00000000  0.50000000  1.0
  Co4+  Co1  1  0.00000000  0.00000000  0.75000000  1.0
  Co4+  Co1  1  0.00000000  0.50000000  0.00000000  1.0
  Co4+  Co1  1  0.00000000  0.50000000  0.25000000  1.0
  Co4+  Co1  1  0.00000000  0.50000000  0.50000000  1.0
  Co4+  Co1  1  0.00000000  0.50000000  0.75000000  1.0
  Co4+  Co1  1  0.50000000  0.00000000  0.00000000  1.0
  Co4+  Co1  1  0.50000000  0.00000000  0.25000000  1.0
  Co4+  Co1  1  0.50000000  0.00000000  0.50000000  1.0
  Co4+  Co1  1  0.50000000  0.00000000  0.75000000  1.0
  Co4+  Co1  1  0.50000000  0.50000000  0.00000000  1.0
  Co4+  Co1  1  0.50000000  0.50000000  0.25000000  1.0
  Co4+  Co1  1  0.50000000  0.50000000  0.50000000  1.0
  Co4+  Co1  1  0.50000000  0.50000000  0.75000000  1.0
  O2-  O2  1  0.00000000  0.00000000  0.12500000  1.0
  O2-  O2  1  0.00000000  0.00000000  0.37500000  1.0
  O2-  O2  1  0.00000000  0.00000000  0.62500000  1.0
  O2-  O2  1  0.00000000  0.00000000  0.87500000  1.0
  O2-  O2  1  0.00000000  0.50000000  0.12500000  1.0
  O2-  O2  1  0.00000000  0.50000000  0.37500000  1.0
  O2-  O2  1  0.00000000  0.50000000  0.62500000  1.0
  O2-  O2  1  0.00000000  0.50000000  0.87500000  1.0
  O2-  O2  1  0.50000000  0.00000000  0.12500000  1.0
  O2-  O2  1  0.50000000  0.00000000  0.37500000  1.0
  O2-  O2  1  0.50000000  0.00000000  0.62500000  1.0
  O2-  O2  1  0.50000000  0.00000000  0.87500000  1.0
  O2-  O2  1  0.50000000  0.50000000  0.12500000  1.0
  O2-  O2  1  0.50000000  0.50000000  0.37500000  1.0
  O2-  O2  1  0.50000000  0.50000000  0.62500000  1.0
  O2-  O2  1  0.50000000  0.50000000  0.87500000  1.0
  O2-  O3  1  0.00000000  0.25000000  0.00000000  1.0
  O2-  O3  1  0.00000000  0.25000000  0.25000000  1.0
  O2-  O3  1  0.00000000  0.25000000  0.50000000  1.0
  O2-  O3  1  0.00000000  0.25000000  0.75000000  1.0
  O2-  O3  1  0.00000000  0.75000000  0.00000000  1.0
  O2-  O3  1  0.00000000  0.75000000  0.25000000  1.0
  O2-  O3  1  0.00000000  0.75000000  0.50000000  1.0
  O2-  O3  1  0.00000000  0.75000000  0.75000000  1.0
  O2-  O3  1  0.50000000  0.25000000  0.00000000  1.0
  O2-  O3  1  0.50000000  0.25000000  0.25000000  1.0
  O2-  O3  1  0.50000000  0.25000000  0.50000000  1.0
  O2-  O3  1  0.50000000  0.25000000  0.75000000  1.0
  O2-  O3  1  0.50000000  0.75000000  0.00000000  1.0
  O2-  O3  1  0.50000000  0.75000000  0.25000000  1.0
  O2-  O3  1  0.50000000  0.75000000  0.50000000  1.0
  O2-  O3  1  0.50000000  0.75000000  0.75000000  1.0
  O2-  O4  1  0.25000000  0.00000000  0.00000000  1.0
  O2-  O4  1  0.25000000  0.00000000  0.25000000  1.0
  O2-  O4  1  0.25000000  0.00000000  0.50000000  1.0
  O2-  O4  1  0.25000000  0.00000000  0.75000000  1.0
  O2-  O4  1  0.25000000  0.50000000  0.00000000  1.0
  O2-  O4  1  0.25000000  0.50000000  0.25000000  1.0
  O2-  O4  1  0.25000000  0.50000000  0.50000000  1.0
  O2-  O4  1  0.25000000  0.50000000  0.75000000  1.0
  O2-  O4  1  0.75000000  0.00000000  0.00000000  1.0
  O2-  O4  1  0.75000000  0.00000000  0.25000000  1.0
  O2-  O4  1  0.75000000  0.00000000  0.50000000  1.0
  O2-  O4  1  0.75000000  0.00000000  0.75000000  1.0
  O2-  O4  1  0.75000000  0.50000000  0.00000000  1.0
  O2-  O4  1  0.75000000  0.50000000  0.25000000  1.0
  O2-  O4  1  0.75000000  0.50000000  0.50000000  1.0
  O2-  O4  1  0.75000000  0.50000000  0.75000000  1.0
